# CIF file generated by openbabel 2.4.1, see http://openbabel.sf.net
data_I
_chemical_name_common ''
_cell_length_a 3
_cell_length_b 3
_cell_length_c 3
_cell_angle_alpha 90
_cell_angle_beta 90
_cell_angle_gamma 90
loop_
    _atom_site_label
    _atom_site_type_symbol
    _atom_site_fract_x
    _atom_site_fract_y
    _atom_site_fract_z
    _atom_site_occupancy
    Mn0     Mn   0.00000   0.18000   0.00000   1.000
    Mn1     Mn   0.91000   0.09000   0.00000   1.000
    Mn2     Mn   0.00000   0.09000   0.90333   1.000
    Mn3     Mn   0.91000   0.18000   0.90333   1.000
    Ga4     Ga   0.00000   0.09000   0.00000   1.000
    Ga5     Ga   0.91000   0.18000   0.00000   1.000
    Ga6     Ga   0.00000   0.18000   0.90333   1.000
    Ga7     Ga   0.91000   0.09000   0.90333   1.000
    Ni8     Ni   0.45500   0.54500   0.45167   1.000
    Ni9     Ni   0.36500   0.54500   0.45167   1.000
    Ni10    Ni   0.45500   0.63500   0.45167   1.000
    Ni11    Ni   0.36500   0.63500   0.45167   1.000
    Ni12    Ni   0.45500   0.54500   0.35500   1.000
    Ni13    Ni   0.45500   0.63500   0.35500   1.000
    Ni14    Ni   0.36500   0.54500   0.35500   1.000
    Ni15    Ni   0.36500   0.63500   0.35500   1.000
